LAMMPS (2 Aug 2023 - Update 2)
variable pdump equal 5000
variable prun equal 500000
variable pequi equal 50000

units           lj
atom_style      full
dimension       3
neighbor        1.5 bin
neigh_modify    every 3 delay 0 check yes
boundary p p p

bond_style fene
kspace_style pppm 0.0001
dielectric 1.0
pair_style lj/cut/coul/long 2.5 6.0

read_data ../../../../03EquilNPT/DIP02/C0.01/T0.85/equi.dat
Reading data file ...
  orthogonal box = (-13.428302 -13.428302 -13.428302) to (13.428302 13.428302 13.428302)
  reading atoms ...
  16000 atoms
  reading velocities ...
  16000 velocities
  scanning bonds ...
  reading bonds ...
  8000 bonds
Finding 1-2 1-3 1-4 neighbors ...
     1 = max # of 1-2 neighbors
     0 = max # of 1-3 neighbors
     0 = max # of 1-4 neighbors
     1 = max # of special neighbors

velocity all create 0.85 16802 dist gaussian mom yes rot yes

#vdw potential
pair_modify     shift yes
pair_coeff   * * 1.0 1.0 1.12246204831
bond_coeff * 30.0 1.5 1.0 1.0
special_bonds fene
Finding 1-2 1-3 1-4 neighbors ...
     1 = max # of 1-2 neighbors
     1 = max # of special neighbors

include in.lfin
variable lfin equal 13.436552
variable rho_t equal count(all)/vol

fix 1 all langevin 1.0 1.0 7.0 12345
fix 2 all nve/limit 0.1
fix 3 all deform 1 x final -13.436552 13.436552 y final -13.436552 13.436552 z final -13.436552 13.436552 units box
fix 4 all efield 0.0 0.0 0.0

thermo          5000
thermo_style    custom step temp epair emol etotal press cpu xhi yhi zhi v_rho_t
thermo_modify norm yes flush yes
timestep        0.01

run 50000
PPPM initialization ...
  G vector (1/distance) = 0.40427975
  grid = 15 15 15
  stencil order = 5
  estimated absolute RMS force accuracy = 8.9343492e-07
  estimated relative force accuracy = 8.9343492e-07
  3d grid and FFT values/proc = 1300 128
Generated 0 of 0 mixed pair_coeff terms from geometric mixing rule
Step          Temp          E_pair         E_mol          TotEng         Press           CPU            Xhi            Yhi            Zhi          v_rho_t
0   0.85           0.48135382     10.315416      12.07169       4.6487149      0              13.428302      13.428302      13.428302      0.82597453
Averages over the last 6 of 11 rows, steps 25000 to 50000:
Temp E_pair E_mol TotEng Press Xhi Yhi Zhi v_rho_t
1.00408 0.631945 10.3522 12.4902 5.89047 13.4345 13.4345 13.4345 0.824834
Loop time of 407.404 on 32 procs for 50000 steps with 16000 atoms

reset_timestep 0
timestep    0.01

unfix 1
unfix 2
unfix 3
unfix 4

velocity all create 0.85 16802 dist gaussian mom yes rot yes

fix 1 all langevin 0.85 0.85 1.0 12345
fix 2 all nve
fix 4 all efield 0.0 0.0 0.0

shell mkdir comp coord_comp

dump 1 all image 5000 ./comp/bulk.*.ppm type type zoom 1.2
dump_modify 1  backcolor white boxcolor black flush yes pad 9

dump 2 all custom 5000 coord_comp/dump.*.txt id type x y z xu yu zu vx vy vz
dump_modify 2 flush yes pad 9

run 500000
PPPM initialization ...
  G vector (1/distance) = 0.4042746
  grid = 15 15 15
  stencil order = 5
  estimated absolute RMS force accuracy = 8.9655633e-07
  estimated relative force accuracy = 8.9655633e-07
  3d grid and FFT values/proc = 1300 128
Generated 0 of 0 mixed pair_coeff terms from geometric mixing rule
Step          Temp          E_pair         E_mol          TotEng         Press           CPU            Xhi            Yhi            Zhi          v_rho_t
0   0.85           0.63480851     10.34888       12.258609      5.7214084      0              13.436552      13.436552      13.436552      0.8244541
Averages over the last 51 of 101 rows, steps 250000 to 500000:
Temp E_pair E_mol TotEng Press Xhi Yhi Zhi v_rho_t
0.84933 0.540518 10.3195 12.1339 5.21379 13.4366 13.4366 13.4366 0.824454
Loop time of 4044.62 on 32 procs for 500000 steps with 16000 atoms

write_data deform.dat
System init for write_data ...
PPPM initialization ...
  G vector (1/distance) = 0.4042746
  grid = 15 15 15
  stencil order = 5
  estimated absolute RMS force accuracy = 8.9655633e-07
  estimated relative force accuracy = 8.9655633e-07
  3d grid and FFT values/proc = 1300 128
Generated 0 of 0 mixed pair_coeff terms from geometric mixing rule
