LAMMPS (2 Aug 2023 - Update 2)
variable pdump equal 5000
variable prun equal 100000
variable pequi equal 200000
variable eps equal 1.0

units           lj
atom_style      full
dimension       3
neighbor        1.5 bin
neigh_modify    every 3 delay 0 check yes
boundary p p p

bond_style fene
pair_style      lj/cut 2.5

read_data /mnt/research/Cheng_Polymer/CCF_PROJ/01BuildNetwork/DIP02/C0.03/polymer.dat
Reading data file ...
  orthogonal box = (-73.6806 -73.6806 -73.6806) to (73.6806 73.6806 73.6806)
  reading atoms ...
  16000 atoms
  scanning bonds ...
  reading bonds ...
  8000 bonds
Finding 1-2 1-3 1-4 neighbors ...
     1 = max # of 1-2 neighbors
     0 = max # of 1-3 neighbors
     0 = max # of 1-4 neighbors
     1 = max # of special neighbors

velocity all create 1.0 482748 dist gaussian mom yes rot yes

#vdw potential
pair_modify     shift yes
pair_coeff   * * 1.0 1.0 1.12246204831
bond_coeff * 30.0 1.5 1.0 1.0
special_bonds fene
Finding 1-2 1-3 1-4 neighbors ...
     1 = max # of 1-2 neighbors
     1 = max # of special neighbors

variable rr equal ((count(all)/0.85)^(1.0/3.0))/2.0
variable rho_t equal count(all)/vol

fix 1 all langevin 1.0 1.0 7.0 12345
fix 2 all nve/limit 0.1
fix 3 all deform 1 x final -13.300573168565 13.300573168565 y final -13.300573168565 13.300573168565 z final -13.300573168565 13.300573168565 units box

thermo          5000
thermo_style    custom step temp epair emol etotal press cpu time
thermo_modify norm yes flush yes
timestep        0.01

run 200000
Generated 0 of 0 mixed pair_coeff terms from geometric mixing rule
Step          Temp          E_pair         E_mol          TotEng         Press           CPU            Time
0   1              9.9933438e+11  10.418898      9.9933438e+11  1.9986712e+10  0              0
Averages over the last 21 of 41 rows, steps 100000 to 200000:
Temp E_pair E_mol TotEng Press
1.01545 0.0711453 10.3822 11.9764 0.564418
Loop time of 15.2623 on 64 procs for 200000 steps with 16000 atoms

reset_timestep 0
timestep    0.01

unfix 1
unfix 2
unfix 3

velocity all create 1.0 482748 dist gaussian mom yes rot yes

fix 1 all langevin 1.0 1.0 1.0 12345
fix 2 all nve

shell mkdir comp coord_comp

dump 1 all image 5000 ./comp/bulk.*.ppm type type zoom 1.2
dump_modify 1  backcolor white boxcolor black flush yes pad 9

dump 2 all custom 5000 coord_comp/dump.*.txt id type x y z xu yu zu vx vy vz
dump_modify 2 flush yes pad 9

run 100000
Generated 0 of 0 mixed pair_coeff terms from geometric mixing rule
Step          Temp          E_pair         E_mol          TotEng         Press           CPU            Time
0   1              0.74319424     10.370812      12.613913      6.8283397      0              0
Averages over the last 11 of 21 rows, steps 50000 to 100000:
Temp E_pair E_mol TotEng Press
0.995632 0.701537 10.3573 12.5522 6.62225
Loop time of 16.5973 on 64 procs for 100000 steps with 16000 atoms

write_data compressed.dat
System init for write_data ...
Generated 0 of 0 mixed pair_coeff terms from geometric mixing rule
